_chemical_name_common IRMOF-74-IX
_cell_length_a 6.9433
_cell_length_b 65.7283
_cell_length_c 65.7283
_cell_angle_alpha 119.8770
_cell_angle_beta 92.0179
_cell_angle_gamma 92.0179
_space_group_name_H-M_alt 'P 1'
_space_group_name_Hall 'P 1'
loop_
    _symmetry_equiv_pos_as_xyz
    x,y,z
loop_
    _atom_site_type_symbol
    _atom_site_fract_x
    _atom_site_fract_y
    _atom_site_fract_z
 H     0.26297  0.60672  0.50768
 H     0.65625  0.90096  0.39328
 H     0.75529  0.49232  0.09904
 H     0.35359  0.63007  0.50425
 H     0.72352  0.87418  0.36993
 H     0.84934  0.49575  0.12582
 H     0.44140  0.60191  0.48696
 H     0.83949  0.88505  0.39809
 H     0.95444  0.51304  0.11495
 H     0.49723  0.63074  0.53997
 H     0.86649  0.90923  0.36926
 H     0.95726  0.46003  0.09077
 H     0.67024  0.63071  0.52080
 H     0.03953  0.89009  0.36929
 H     0.14944  0.47920  0.10991
 H     0.77231  0.60446  0.53307
 H     0.16785  0.92861  0.39554
 H     0.23924  0.46693  0.07139
 H     0.68961  0.58772  0.50343
 H     0.10189  0.91571  0.41228
 H     0.18618  0.49657  0.08429
 H     0.37228  0.57871  0.51505
 H     0.79357  0.93634  0.42129
 H     0.85723  0.48495  0.06366
 H     0.45348  0.59606  0.54495
 H     0.85742  0.94889  0.40394
 H     0.90853  0.45505  0.05111
 H     0.72125  0.57009  0.53882
 H     0.15116  0.96873  0.42991
 H     0.18243  0.46118  0.03127
 H     0.65237  0.55405  0.50887
 H     0.09832  0.95482  0.44595
 H     0.14350  0.49113  0.04518
 H     0.30099  0.55290  0.52889
 H     0.74809  0.97599  0.44710
 H     0.77210  0.47111  0.02401
 H     0.47508  0.55411  0.54928
 H     0.92097  0.99517  0.44589
 H     0.92580  0.45072  0.00483
 H     0.87715  0.51426  0.48581
 H     0.36289  0.97155  0.48574
 H     0.39134  0.51419  0.02845
 H     0.07373  0.51653  0.50511
 H     0.55720  0.98858  0.48347
 H     0.56862  0.49489  0.01142
 H     0.95349  0.54155  0.51084
 H     0.41194  0.96929  0.45845
 H     0.44265  0.48916  0.03071
 H     0.58719  0.53790  0.43283
 H     0.04929  0.89493  0.46210
 H     0.15436  0.56717  0.10507
 H     0.46638  0.56440  0.44296
 H     0.90198  0.87856  0.43560
 H     0.02342  0.55704  0.12144
 H     0.64815  0.56227  0.46096
 H     0.08588  0.89869  0.43773
 H     0.18719  0.53904  0.10131
 H     0.05693  0.51583  0.39394
 H     0.54110  0.87811  0.48417
 H     0.66299  0.60606  0.12189
 H     0.30001  0.52826  0.39885
 H     0.77175  0.87059  0.47174
 H     0.90116  0.60115  0.12941
 H     0.21030  0.51713  0.41640
 H     0.69317  0.89927  0.48287
 H     0.79390  0.58360  0.10073
 H     0.64897  0.60833  0.45663
 H     0.04064  0.84830  0.39167
 H     0.19234  0.54337  0.15170
 H     0.79274  0.61450  0.48193
 H     0.17824  0.86743  0.38550
 H     0.31081  0.51807  0.13257
 H     0.86666  0.62708  0.46527
 H     0.23958  0.83819  0.37292
 H     0.40139  0.53473  0.16181
 H     0.45898  0.54993  0.38036
 H     0.90905  0.83043  0.45007
 H     0.07862  0.61964  0.16957
 H     0.70739  0.54341  0.37995
 H     0.16398  0.83654  0.45659
 H     0.32744  0.62005  0.16346
 H     0.58184  0.55422  0.40616
 H     0.02762  0.85194  0.44578
 H     0.17568  0.59384  0.14806
 H     0.72063  0.65839  0.41074
 H     0.06224  0.75235  0.34161
 H     0.30989  0.58926  0.24765
 H     0.77362  0.66052  0.43801
 H     0.11310  0.77749  0.33948
 H     0.33561  0.56199  0.22251
 H     0.96125  0.65450  0.41838
 H     0.30675  0.76388  0.34550
 H     0.54287  0.58162  0.23612
 H     0.85673  0.46386  0.93714
 H     0.39287  0.47328  0.53614
 H     0.91959  0.06286  0.52672
 H     0.54801  0.47014  0.92390
 H     0.07787  0.45376  0.52986
 H     0.62411  0.07610  0.54624
 H     0.93076  0.37080  0.79185
 H     0.55996  0.42105  0.62920
 H     0.13891  0.20815  0.57895
 H     0.44880  0.42796  0.80435
 H     0.02084  0.37639  0.57204
 H     0.64445  0.19565  0.62361
 H     0.59987  0.51964  0.54289
 H     0.08023  0.02325  0.48036
 H     0.05698  0.45711  0.97675
 H     0.00230  0.58704  0.47849
 H     0.41526  0.89145  0.41296
 H     0.52381  0.52151  0.10855
 H     0.02705  0.55479  0.39452
 H     0.47226  0.83973  0.44521
 H     0.63253  0.60548  0.16027
 H     0.18057  0.39157  0.77695
 H     0.78900  0.38538  0.60843
 H     0.40362  0.22305  0.61462
 H     0.37328  0.37374  0.74402
 H     0.99954  0.37028  0.62626
 H     0.62926  0.25598  0.62972
 H     0.66476  0.36207  0.73373
 H     0.30269  0.37166  0.63793
 H     0.93103  0.26627  0.62834
 H     0.77325  0.68937  0.39341
 H     0.08388  0.70404  0.31063
 H     0.37984  0.60659  0.29596
 H     0.20892  0.31084  0.60784
 H     0.89808  0.29700  0.68916
 H     0.60108  0.39216  0.70300
 H     0.35128  0.63659  0.26364
 H     0.71469  0.62705  0.36341
 H     0.08764  0.73636  0.37295
 H     0.64557  0.62073  0.25622
 H     0.02484  0.63549  0.37927
 H     0.38935  0.74378  0.36451
 H     0.83181  0.60231  0.22262
 H     0.22950  0.62031  0.39769
 H     0.60919  0.77738  0.37969
 H     0.96936  0.44587  0.60892
 H     0.52349  0.16305  0.55413
 H     0.36044  0.39108  0.83695
 H     0.99277  0.41300  0.52485
 H     0.57977  0.11185  0.58700
 H     0.46792  0.47515  0.88815
 H     0.39511  0.47994  0.45987
 H     0.91518  0.97994  0.52006
 H     0.93524  0.54013  0.02006
 H     0.55363  0.56810  0.19232
 H     0.98553  0.62422  0.43190
 H     0.36131  0.80768  0.37578
 H     0.07038  0.62561  0.20663
 H     0.44477  0.58102  0.37439
 H     0.86375  0.79337  0.41898
 H     0.44386  0.52685  0.07298
 H     0.91701  0.54613  0.47315
 H     0.37088  0.92702  0.45387
 H     0.13533  0.53317  0.05985
 H     0.60216  0.52668  0.46683
 H     0.07548  0.94015  0.47332
 H     0.05989  0.34643  0.58683
 H     0.71346  0.24040  0.65357
 H     0.47306  0.41317  0.75960
 H     0.22974  0.34080  0.56531
 H     0.88894  0.22451  0.65920
 H     0.66443  0.43469  0.77549
 H     0.30859  0.34256  0.59172
 H     0.96603  0.24916  0.65744
 H     0.71687  0.40828  0.75084
 H     0.40746  0.44760  0.59768
 H     0.95986  0.15008  0.55240
 H     0.80978  0.40232  0.84992
 H     0.28544  0.45781  0.62407
 H     0.82763  0.16626  0.54219
 H     0.66137  0.37593  0.83374
 H     0.53579  0.45201  0.62324
 H     0.08378  0.17123  0.54799
 H     0.91255  0.37676  0.82877
 H     0.13221  0.37340  0.53841
 H     0.75881  0.16501  0.62660
 H     0.59380  0.46159  0.83499
 H     0.20502  0.38589  0.52163
 H     0.81913  0.13574  0.61411
 H     0.68339  0.47837  0.86426
 H     0.34898  0.39228  0.54698
 H     0.95670  0.15470  0.60772
 H     0.80200  0.45302  0.84530
 H     0.78547  0.48316  0.58663
 H     0.30231  0.10347  0.51684
 H     0.19884  0.41337  0.89653
 H     0.69610  0.47228  0.60438
 H     0.22382  0.13210  0.52772
 H     0.09172  0.39562  0.86790
 H     0.93925  0.48463  0.60913
 H     0.45462  0.12450  0.51537
 H     0.33012  0.39087  0.87550
 H     0.34741  0.43776  0.54227
 H     0.90965  0.10451  0.56224
 H     0.80514  0.45773  0.89549
 H     0.52883  0.43604  0.56058
 H     0.09279  0.12454  0.56396
 H     0.96825  0.43942  0.87546
 H     0.40709  0.46240  0.57025
 H     0.94469  0.10785  0.53760
 H     0.83684  0.42975  0.89215
 H     0.04092  0.45813  0.49202
 H     0.58279  0.03389  0.54187
 H     0.54890  0.50798  0.96611
 H     0.92123  0.48315  0.49769
 H     0.43808  0.01454  0.51685
 H     0.42354  0.50231  0.98546
 H     0.11795  0.48543  0.51698
 H     0.63252  0.03155  0.51457
 H     0.60097  0.48302  0.96845
 H     0.51924  0.44570  0.45363
 H     0.07354  0.00793  0.55430
 H     0.06561  0.54637  0.99207
 H     0.69387  0.44691  0.47396
 H     0.24696  0.02705  0.55309
 H     0.21991  0.52604  0.97295
 H     0.34259  0.44585  0.49410
 H     0.89674  0.04825  0.55415
 H     0.84849  0.50590  0.95175
 H     0.27387  0.42971  0.46416
 H     0.84416  0.03445  0.57029
 H     0.80971  0.53584  0.96555
 H     0.54169  0.40378  0.45814
 H     0.13791  0.05436  0.59622
 H     0.08355  0.54186  0.94564
 H     0.62325  0.42127  0.48802
 H     0.20198  0.06675  0.57873
 H     0.13523  0.51198  0.93325
 H     0.30639  0.41235  0.49979
 H     0.89404  0.08744  0.58765
 H     0.80660  0.50021  0.91256
 H     0.22320  0.39547  0.47017
 H     0.82773  0.07470  0.60453
 H     0.75303  0.52983  0.92530
 H     0.32593  0.36939  0.48263
 H     0.95654  0.11324  0.63061
 H     0.84330  0.51737  0.88676
 H     0.49830  0.36924  0.46334
 H     0.12906  0.09410  0.63076
 H     0.03496  0.53666  0.90590
 H     0.55550  0.39833  0.51633
 H     0.15717  0.11800  0.60167
 H     0.03917  0.48367  0.88200
 H     0.64303  0.37013  0.49914
 H     0.27290  0.12901  0.62987
 H     0.14389  0.50086  0.87099
 H     0.73327  0.39337  0.49549
 H     0.33990  0.10212  0.60663
 H     0.23778  0.50451  0.89788
 C     0.39334  0.61420  0.50419
 C     0.77914  0.88999  0.38580
 C     0.88915  0.49581  0.11001
 C     0.55404  0.62015  0.52275
 C     0.93389  0.90260  0.37985
 C     0.03129  0.47725  0.09740
 C     0.64196  0.59877  0.52106
 C     0.04319  0.92229  0.40123
 C     0.12090  0.47894  0.07771
 C     0.50098  0.58493  0.52731
 C     0.91605  0.94238  0.41507
 C     0.97367  0.47269  0.05762
 C     0.59562  0.56413  0.52609
 C     0.03149  0.96196  0.43587
 C     0.06953  0.47391  0.03804
 C     0.45267  0.54924  0.53093
 C     0.90343  0.98169  0.45076
 C     0.92174  0.46907  0.01831
 C     0.00338  0.52528  0.49687
 C     0.47810  0.97159  0.47472
 C     0.50651  0.50313  0.02841
 C     0.52828  0.55252  0.44803
 C     0.97576  0.89551  0.44748
 C     0.08025  0.55197  0.10449
 C     0.17186  0.52653  0.40736
 C     0.64533  0.88083  0.47347
 C     0.76450  0.59264  0.11917
 C     0.79930  0.61136  0.46416
 C     0.18794  0.85280  0.38864
 C     0.33514  0.53584  0.14720
 C     0.59952  0.55546  0.39052
 C     0.04406  0.83506  0.44454
 C     0.20900  0.60948  0.16494
 C     0.80579  0.65117  0.41961
 C     0.15462  0.76844  0.34883
 C     0.38618  0.58039  0.23156
 C     0.06607  0.45526  0.91166
 C     0.61081  0.45640  0.54474
 C     0.15441  0.08834  0.54360
 C     0.00781  0.46523  0.93421
 C     0.54258  0.46898  0.53477
 C     0.07360  0.06579  0.53102
 C     0.33638  0.48002  0.94924
 C     0.85636  0.46922  0.51998
 C     0.38714  0.05076  0.53078
 C     0.39658  0.46886  0.92674
 C     0.92772  0.45788  0.53114
 C     0.46984  0.07326  0.54212
 C     0.82626  0.38345  0.79471
 C     0.44281  0.41126  0.61655
 C     0.03155  0.20529  0.58874
 C     0.73020  0.39341  0.81514
 C     0.33679  0.42173  0.60659
 C     0.91506  0.18486  0.57827
 C     0.65742  0.40632  0.78168
 C     0.25110  0.37536  0.59368
 C     0.87574  0.21832  0.62464
 C     0.55507  0.41558  0.80173
 C     0.13949  0.38615  0.58442
 C     0.75334  0.19827  0.61385
 C     0.66189  0.47514  0.52211
 C     0.18675  0.04697  0.52486
 C     0.13978  0.47789  0.95303
 C     0.80840  0.45171  0.54386
 C     0.35669  0.09215  0.54829
 C     0.26454  0.45614  0.90785
 C     0.18321  0.40899  0.59018
 C     0.77422  0.18119  0.59101
 C     0.59303  0.40982  0.81881
 C     0.40302  0.38826  0.61028
 C     0.01476  0.22202  0.61174
 C     0.79274  0.38972  0.77798
 C     0.55473  0.51109  0.52480
 C     0.04364  0.01371  0.48891
 C     0.02993  0.47520  0.98629
 C     0.47631  0.52376  0.51540
 C     0.95255  0.99164  0.47624
 C     0.96091  0.48460  0.00836
 C     0.41768  0.51234  0.49175
 C     0.90534  0.97941  0.48766
 C     0.92593  0.50825  0.02059
 C     0.91430  0.59093  0.44967
 C     0.32337  0.85874  0.40907
 C     0.46463  0.55033  0.14126
 C     0.00748  0.58002  0.46013
 C     0.42746  0.88011  0.41998
 C     0.54735  0.53987  0.11989
 C     0.09960  0.55957  0.44716
 C     0.54003  0.88759  0.44043
 C     0.65244  0.55284  0.11241
 C     0.09980  0.54991  0.42304
 C     0.54989  0.87313  0.45009
 C     0.67676  0.57696  0.12687
 C     0.02014  0.56178  0.41285
 C     0.45836  0.85107  0.43822
 C     0.60729  0.58715  0.14893
 C     0.92224  0.58181  0.42570
 C     0.34043  0.84389  0.41819
 C     0.49654  0.57430  0.15611
 C     0.21871  0.37034  0.74069
 C     0.84836  0.37034  0.62966
 C     0.47802  0.25931  0.62966
 C     0.10869  0.38143  0.76006
 C     0.72726  0.37863  0.61857
 C     0.34863  0.23994  0.62137
 C     0.90738  0.37856  0.75713
 C     0.52881  0.37856  0.62144
 C     0.15025  0.24287  0.62144
 C     0.81852  0.36534  0.73547
 C     0.45318  0.37013  0.63466
 C     0.08305  0.26453  0.62987
 C     0.45061  0.63889  0.35662
 C     0.81172  0.71773  0.36111
 C     0.09399  0.64338  0.28227
 C     0.24987  0.64140  0.36089
 C     0.60847  0.71949  0.35860
 C     0.88898  0.63911  0.28051
 C     0.11489  0.65273  0.35232
 C     0.46216  0.69959  0.34727
 C     0.76257  0.64768  0.30041
 C     0.90025  0.34871  0.64896
 C     0.55154  0.30025  0.65129
 C     0.25129  0.35104  0.69975
 C     0.77477  0.36069  0.64214
 C     0.41408  0.28145  0.63931
 C     0.13263  0.35786  0.71855
 C     0.57262  0.36163  0.64558
 C     0.21099  0.28395  0.63837
 C     0.92704  0.35442  0.71605
 C     0.19815  0.63250  0.26245
 C     0.56565  0.62995  0.36750
 C     0.93570  0.73755  0.37005
 C     0.10610  0.61735  0.24100
 C     0.48875  0.62365  0.38265
 C     0.86510  0.75900  0.37635
 C     0.90603  0.61360  0.23917
 C     0.29243  0.62557  0.38640
 C     0.66686  0.76083  0.37443
 C     0.79971  0.62433  0.25856
 C     0.17538  0.63423  0.37567
 C     0.54115  0.74144  0.36577
 C     0.07526  0.41877  0.57785
 C     0.65649  0.15908  0.58123
 C     0.49741  0.42215  0.84092
 C     0.97606  0.43873  0.59056
 C     0.53733  0.15183  0.56127
 C     0.38550  0.40944  0.84817
 C     0.89570  0.45044  0.58023
 C     0.44526  0.12979  0.54956
 C     0.31547  0.41977  0.87021
 C     0.89551  0.44061  0.55610
 C     0.45490  0.11549  0.55939
 C     0.33941  0.44390  0.88451
 C     0.98779  0.42015  0.54323
 C     0.56764  0.12308  0.57985
 C     0.44456  0.45677  0.87692
 C     0.08253  0.40948  0.55384
 C     0.67305  0.14436  0.59052
 C     0.52869  0.44616  0.85564
 C     0.57745  0.48748  0.51112
 C     0.08997  0.02364  0.51252
 C     0.06633  0.48888  0.97636
 C     0.51877  0.47607  0.48749
 C     0.04270  0.01142  0.52393
 C     0.03128  0.51251  0.98858
 C     0.44061  0.48915  0.47829
 C     0.95147  0.98915  0.51085
 C     0.96232  0.52171  0.01085
 C     0.60902  0.61332  0.39326
 C     0.99570  0.77994  0.38668
 C     0.21576  0.60674  0.22006
 C     0.81783  0.59199  0.41354
 C     0.22584  0.82155  0.40801
 C     0.40429  0.58646  0.17845
 C     0.18655  0.54832  0.45925
 C     0.63823  0.91093  0.45168
 C     0.72730  0.54075  0.08907
 C     0.33307  0.52469  0.48078
 C     0.80838  0.95609  0.47531
 C     0.85229  0.51922  0.04391
 C     0.44741  0.58061  0.19538
 C     0.86680  0.61477  0.41939
 C     0.25203  0.80462  0.38523
 C     0.35087  0.59001  0.21583
 C     0.76086  0.62582  0.40999
 C     0.13504  0.78417  0.37418
 C     0.26646  0.60291  0.18259
 C     0.66355  0.57968  0.39709
 C     0.08387  0.81741  0.42032
 C     0.17580  0.61297  0.20340
 C     0.56283  0.59043  0.38703
 C     0.97240  0.79660  0.40957
 C     0.59529  0.52813  0.07017
 C     0.06716  0.54204  0.47187
 C     0.52512  0.92983  0.45796
 C     0.65560  0.51707  0.04766
 C     0.13853  0.53059  0.48293
 C     0.60794  0.95234  0.46941
 C     0.98393  0.53124  0.06249
 C     0.45268  0.53124  0.46876
 C     0.92144  0.93751  0.46876
 C     0.92583  0.54164  0.08528
 C     0.38419  0.54364  0.45836
 C     0.84055  0.91472  0.45636
 C     0.21093  0.34994  0.58407
 C     0.86099  0.23413  0.65006
 C     0.62686  0.41593  0.76587
 C     0.39442  0.44614  0.61324
 C     0.94828  0.16710  0.55386
 C     0.78118  0.38676  0.83290
 C     0.19862  0.38911  0.53944
 C     0.80951  0.15033  0.61089
 C     0.65918  0.46056  0.84967
 C     0.82404  0.47388  0.59579
 C     0.35016  0.12191  0.52612
 C     0.22825  0.40421  0.87809
 C     0.46676  0.44770  0.55522
 C     0.01906  0.10752  0.55230
 C     0.91154  0.44478  0.89248
 C     0.99146  0.47443  0.50596
 C     0.51703  0.03153  0.52557
 C     0.48550  0.49404  0.96847
 C     0.54215  0.45060  0.47198
 C     0.09155  0.02138  0.54940
 C     0.07017  0.52802  0.97862
 C     0.39944  0.43571  0.47688
 C     0.96373  0.04117  0.56429
 C     0.92256  0.52312  0.95883
 C     0.49439  0.41498  0.47577
 C     0.07941  0.06079  0.58502
 C     0.01862  0.52423  0.93921
 C     0.35375  0.40122  0.48215
 C     0.95253  0.08093  0.59878
 C     0.87160  0.51785  0.91907
 C     0.44192  0.37990  0.48058
 C     0.06202  0.10068  0.62010
 C     0.96134  0.51942  0.89932
 C     0.60311  0.38593  0.49909
 C     0.21718  0.11316  0.61407
 C     0.10402  0.50091  0.88684
 O     0.65832  0.68877  0.38396
 O     0.96955  0.69519  0.31123
 O     0.27436  0.61604  0.30481
 O     0.53917  0.64290  0.34046
 O     0.89627  0.69756  0.35710
 O     0.19871  0.65954  0.30244
 O     0.17147  0.66011  0.33924
 O     0.51136  0.67913  0.33989
 O     0.83223  0.66076  0.32087
 O     0.94114  0.65525  0.35868
 O     0.28589  0.70343  0.34475
 O     0.58246  0.64132  0.29657
 O     0.07686  0.34722  0.64373
 O     0.72964  0.29651  0.65278
 O     0.43313  0.35627  0.70349
 O     0.83725  0.33899  0.65973
 O     0.49826  0.32074  0.66101
 O     0.17752  0.34027  0.67926
 O     0.49621  0.35549  0.65886
 O     0.14072  0.30337  0.64451
 O     0.83735  0.34114  0.69663
 O     0.33542  0.31287  0.61607
 O     0.02255  0.30320  0.68713
 O     0.71935  0.38393  0.69680
 Mg    0.73098  0.67043  0.35127
 Mg    0.06055  0.68084  0.32957
 Mg    0.37971  0.64873  0.31916
 Mg    0.28611  0.33076  0.64963
 Mg    0.95535  0.31887  0.66924
 Mg    0.63648  0.35037  0.68113
