_chemical_name_common IRMOF-74-VII
_cell_length_a 6.9879
_cell_length_b 53.1442
_cell_length_c 53.1442
_cell_angle_alpha 119.8095
_cell_angle_beta 92.5121
_cell_angle_gamma 92.5121
_space_group_name_H-M_alt 'P 1'
_space_group_name_Hall 'P 1'
loop_
    _symmetry_equiv_pos_as_xyz
    x,y,z
loop_
    _atom_site_type_symbol
    _atom_site_fract_x
    _atom_site_fract_y
    _atom_site_fract_z
 H         0.70793  0.68545  0.27945
 H         0.42848  0.72055  0.40600
 H         0.02248  0.59400  0.31455
 H         0.78352  0.64277  0.12815
 H         0.65537  0.87185  0.51462
 H         0.14075  0.48538  0.35723
 H         0.59283  0.62195  0.10103
 H         0.49180  0.89897  0.52092
 H         0.97088  0.47908  0.37805
 H         0.72130  0.60600  0.11920
 H         0.60210  0.88080  0.48680
 H         0.11530  0.51320  0.39400
 H         0.01338  0.60901  0.09618
 H         0.91720  0.90382  0.51283
 H         0.40437  0.48717  0.39099
 H         0.89152  0.62660  0.07970
 H         0.81182  0.92030  0.54690
 H         0.26492  0.45310  0.37340
 H         0.90435  0.57728  0.04280
 H         0.86155  0.95720  0.53448
 H         0.32707  0.46552  0.42272
 H         0.66365  0.58133  0.05159
 H         0.61206  0.94841  0.52974
 H         0.08232  0.47026  0.41867
 H         0.68397  0.55406  0.07649
 H         0.60748  0.92351  0.47757
 H         0.12991  0.52243  0.44594
 H         0.93725  0.55890  0.08113
 H         0.85612  0.91887  0.47777
 H         0.37835  0.52223  0.44110
 H         0.93932  0.52886  0.02573
 H         0.91359  0.97427  0.50313
 H         0.41046  0.49687  0.47114
 H         0.69039  0.52091  0.02390
 H         0.66649  0.97610  0.49701
 H         0.16948  0.50299  0.47909
 H         0.72331  0.48872  0.04133
 H         0.68198  0.95867  0.44739
 H         0.23459  0.55261  0.51128
 H         0.92029  0.50865  0.06565
 H         0.85464  0.93435  0.44300
 H         0.41164  0.55700  0.49135
 H         0.38901  0.43997  0.07265
 H         0.31636  0.92735  0.36732
 H         0.94904  0.63268  0.56003
 H         0.19083  0.43852  0.04983
 H         0.14100  0.95017  0.38869
 H         0.75231  0.61131  0.56148
 H         0.42790  0.43723  0.03837
 H         0.38953  0.96163  0.39886
 H         0.99067  0.60114  0.56277
 H         0.41666  0.58488  0.13879
 H         0.27787  0.86121  0.44609
 H         0.83178  0.55391  0.41512
 H         0.41228  0.58256  0.10370
 H         0.30858  0.89630  0.47886
 H         0.82972  0.52114  0.41744
 H         0.19823  0.57747  0.11764
 H         0.08059  0.88236  0.45983
 H         0.62076  0.54017  0.42253
 H         0.41503  0.49708  0.15189
 H         0.26314  0.84811  0.34519
 H         0.91795  0.65481  0.50292
 H         0.36204  0.52433  0.18752
 H         0.17452  0.81248  0.33681
 H         0.83771  0.66319  0.47567
 H         0.25459  0.52422  0.15625
 H         0.09834  0.84375  0.36797
 H         0.73037  0.63203  0.47578
 H         0.96785  0.60536  0.15308
 H         0.81477  0.84692  0.45228
 H         0.36249  0.54772  0.39464
 H         0.98372  0.62170  0.19185
 H         0.79187  0.80815  0.42985
 H         0.36202  0.57015  0.37830
 H         0.13658  0.59362  0.17025
 H         0.96633  0.82975  0.42337
 H         0.54296  0.57663  0.40638
 H         0.82609  0.41068  0.57822
 H         0.24787  0.42178  0.83246
 H         0.41541  0.16754  0.58932
 H         0.39525  0.47098  0.63957
 H         0.75568  0.36043  0.83141
 H         0.92427  0.16859  0.52902
 H         0.76710  0.46617  0.98630
 H         0.78080  0.01370  0.47987
 H         0.30093  0.52013  0.53383
 H         0.21853  0.53559  0.06220
 H         0.15633  0.93780  0.47339
 H         0.68294  0.52661  0.46441
 H         0.53303  0.48533  0.10772
 H         0.42531  0.89228  0.37761
 H         0.04770  0.62239  0.51467
 H         0.61906  0.42670  0.62263
 H         0.99643  0.37737  0.80407
 H         0.19236  0.19593  0.57330
 H         0.41190  0.39689  0.63378
 H         0.77812  0.36622  0.76311
 H         0.01501  0.23689  0.60311
 H         0.09072  0.38193  0.62822
 H         0.46250  0.37178  0.75371
 H         0.70879  0.24629  0.61807
 H         0.92506  0.68876  0.28820
 H         0.63686  0.71180  0.40056
 H         0.23630  0.59944  0.31124
 H         0.27883  0.28618  0.68671
 H         0.59212  0.31329  0.59947
 H         0.99265  0.40053  0.71382
 H         0.13415  0.64440  0.39508
 H         0.73907  0.60492  0.24932
 H         0.48975  0.75068  0.35560
 H         0.82473  0.64048  0.40188
 H         0.42285  0.59812  0.23860
 H         0.18425  0.76140  0.35952
 H         0.63151  0.62487  0.42832
 H         0.20319  0.57168  0.19655
 H         0.00664  0.80345  0.37513
 H         0.88158  0.44551  0.88261
 H         0.99897  0.11739  0.56290
 H         0.43607  0.43710  0.55449
 H         0.81399  0.39566  0.93996
 H         0.87403  0.06004  0.45570
 H         0.41833  0.54430  0.60434
 H         0.43559  0.45911  0.01010
 H         0.42549  0.98990  0.44901
 H         0.97648  0.55099  0.54089
 H         0.19084  0.56037  0.43526
 H         0.75558  0.56474  0.12511
 H         0.63047  0.87489  0.43963
 H         0.09957  0.65793  0.44843
 H         0.65114  0.55157  0.20950
 H         0.44164  0.79050  0.34207
 H         0.55288  0.33331  0.76135
 H         0.79153  0.23865  0.57196
 H         0.21957  0.42804  0.66669
 H         0.64038  0.32187  0.78593
 H         0.85445  0.21407  0.53593
 H         0.31851  0.46407  0.67813
 H         0.39043  0.32067  0.77840
 H         0.61203  0.22160  0.54227
 H         0.06976  0.45773  0.67933
 H         0.55793  0.46160  0.89085
 H         0.66708  0.10915  0.57075
 H         0.09633  0.42925  0.53840
 H         0.30848  0.45393  0.88196
 H         0.42652  0.11804  0.57197
 H         0.85455  0.42803  0.54607
 H         0.42437  0.44014  0.90280
 H         0.52157  0.09720  0.53734
 H         0.98423  0.46266  0.55986
 H         0.61848  0.35709  0.90257
 H         0.71591  0.09743  0.45452
 H         0.26139  0.54548  0.64291
 H         0.46284  0.36974  0.88425
 H         0.57859  0.11575  0.48549
 H         0.09310  0.51451  0.63026
 H         0.66113  0.34927  0.86683
 H         0.79430  0.13317  0.48244
 H         0.31186  0.51756  0.65073
 H         0.08053  0.48347  0.91968
 H         0.16085  0.08032  0.56379
 H         0.59706  0.43621  0.51653
 H         0.02222  0.49171  0.95542
 H         0.06680  0.04458  0.53629
 H         0.53051  0.46371  0.50829
 H         0.22710  0.47235  0.94034
 H         0.28676  0.05966  0.53201
 H         0.75475  0.46799  0.52765
 H         0.27204  0.41376  0.93122
 H         0.34082  0.06878  0.48254
 H         0.85828  0.51746  0.58624
 H         0.46901  0.43525  0.95497
 H         0.51404  0.04503  0.48028
 H         0.03376  0.51972  0.56475
 H         0.49612  0.38594  0.94551
 H         0.55061  0.05449  0.44043
 H         0.11018  0.55957  0.61406
 H         0.44326  0.40720  0.98209
 H         0.46117  0.01791  0.42511
 H         0.03606  0.57489  0.59280
 H         0.25344  0.36362  0.96441
 H         0.28903  0.03559  0.39921
 H         0.88982  0.60079  0.63638
 H         0.09120  0.38846  0.96468
 H         0.12652  0.03532  0.42378
 H         0.70274  0.57622  0.61154
 H         0.12554  0.36809  0.91056
 H         0.21498  0.08944  0.45753
 H         0.75745  0.54247  0.63191
 H         0.28349  0.34299  0.91091
 H         0.37258  0.08909  0.43208
 H         0.94050  0.56792  0.65701
 H         0.87457  0.34628  0.92946
 H         0.94511  0.07054  0.41682
 H         0.52829  0.58318  0.65372
 H         0.93652  0.32397  0.89285
 H         0.04367  0.10715  0.43112
 H         0.61255  0.56888  0.67603
 H         0.15652  0.29846  0.90990
 H         0.24662  0.09010  0.38856
 H         0.85806  0.61144  0.70154
 H         0.07674  0.31938  0.94610
 H         0.13064  0.05390  0.37328
 H         0.75736  0.62672  0.68062
 H         0.91326  0.29449  0.91627
 H         0.99699  0.08373  0.37822
 H         0.61877  0.62178  0.70551
 H         0.48666  0.29164  0.70039
 H         0.78627  0.29961  0.59125
 H         0.19502  0.40875  0.70836
 C         0.73335  0.62075  0.11015
 C         0.62320  0.88985  0.51060
 C         0.11260  0.48940  0.37925
 C         0.87368  0.61021  0.08676
 C         0.78692  0.91324  0.52345
 C         0.26347  0.47655  0.38979
 C         0.80817  0.58067  0.05996
 C         0.74821  0.94004  0.52071
 C         0.22750  0.47929  0.41933
 C         0.81291  0.55519  0.06603
 C         0.74688  0.93397  0.48916
 C         0.25772  0.51084  0.44481
 C         0.82386  0.52617  0.03781
 C         0.78605  0.96219  0.48836
 C         0.29769  0.51164  0.47383
 C         0.85993  0.50069  0.04316
 C         0.81677  0.95684  0.45753
 C         0.35924  0.54247  0.49931
 C         0.34015  0.44705  0.05717
 C         0.28298  0.94283  0.38988
 C         0.89310  0.61012  0.55295
 C         0.34960  0.57331  0.11631
 C         0.23329  0.88369  0.45700
 C         0.77629  0.54300  0.42669
 C         0.38611  0.52022  0.16532
 C         0.22079  0.83468  0.35490
 C         0.86589  0.64510  0.47978
 C         0.99257  0.60092  0.17123
 C         0.82134  0.82877  0.42969
 C         0.39165  0.57031  0.39908
 C         0.94989  0.42401  0.59171
 C         0.35818  0.40829  0.83230
 C         0.52588  0.16770  0.57599
 C         0.05925  0.44013  0.58264
 C         0.47661  0.41736  0.85749
 C         0.61912  0.14251  0.55987
 C         0.15478  0.44295  0.63616
 C         0.51862  0.36384  0.80679
 C         0.71183  0.19321  0.55705
 C         0.27058  0.45783  0.62626
 C         0.64432  0.37374  0.83157
 C         0.81275  0.16843  0.54217
 C         0.62360  0.40016  0.85704
 C         0.76656  0.14296  0.54312
 C         0.22344  0.45688  0.59984
 C         0.37775  0.38185  0.80689
 C         0.57086  0.19311  0.57496
 C         0.99590  0.42504  0.61815
 C         0.91188  0.46408  0.99175
 C         0.92013  0.00825  0.47233
 C         0.44780  0.52767  0.53592
 C         0.98574  0.47946  0.02054
 C         0.96520  0.97946  0.45891
 C         0.50629  0.54109  0.52054
 C         0.17725  0.47769  0.02770
 C         0.14955  0.97230  0.44999
 C         0.69956  0.55001  0.52231
 C         0.36725  0.54098  0.10082
 C         0.26643  0.89918  0.44016
 C         0.82627  0.55984  0.45902
 C         0.28074  0.52452  0.07258
 C         0.20816  0.92742  0.45194
 C         0.75622  0.54806  0.47548
 C         0.27016  0.49405  0.05772
 C         0.21244  0.94228  0.43633
 C         0.77611  0.56367  0.50595
 C         0.35597  0.47974  0.07116
 C         0.28481  0.92884  0.40858
 C         0.87623  0.59142  0.52026
 C         0.45660  0.49630  0.09840
 C         0.35820  0.90160  0.39790
 C         0.96030  0.60210  0.50370
 C         0.46258  0.52678  0.11361
 C         0.34897  0.88639  0.41317
 C         0.93580  0.58683  0.47322
 C         0.56011  0.39358  0.63355
 C         0.92656  0.36645  0.76003
 C         0.16653  0.23997  0.60642
 C         0.67866  0.41080  0.62710
 C         0.05156  0.37290  0.78370
 C         0.26786  0.21630  0.58920
 C         0.87218  0.40764  0.62645
 C         0.24573  0.37355  0.78119
 C         0.46454  0.21881  0.59236
 C         0.94409  0.38612  0.63114
 C         0.31295  0.36886  0.75498
 C         0.55797  0.24502  0.61388
 C         0.01272  0.61866  0.27235
 C         0.74037  0.72765  0.34631
 C         0.39406  0.65369  0.38134
 C         0.21182  0.61805  0.26960
 C         0.94222  0.73040  0.34845
 C         0.59377  0.65155  0.38195
 C         0.35778  0.63789  0.29323
 C         0.06455  0.70677  0.34466
 C         0.71989  0.65534  0.36211
 C         0.84515  0.34821  0.70763
 C         0.13752  0.29237  0.64058
 C         0.49694  0.35942  0.65179
 C         0.99049  0.35987  0.73284
 C         0.25765  0.26716  0.62703
 C         0.63062  0.37297  0.64013
 C         0.18991  0.36187  0.73072
 C         0.45919  0.26928  0.63115
 C         0.82804  0.36885  0.63813
 C         0.28464  0.64320  0.39598
 C         0.88866  0.60402  0.24722
 C         0.64144  0.75278  0.35680
 C         0.36733  0.63163  0.41202
 C         0.95531  0.58798  0.21961
 C         0.73570  0.78039  0.36837
 C         0.56351  0.63231  0.41491
 C         0.14860  0.58509  0.21740
 C         0.93120  0.78260  0.36769
 C         0.67446  0.64176  0.39991
 C         0.27455  0.60009  0.24185
 C         0.03270  0.75815  0.35824
 C         0.74847  0.40893  0.88367
 C         0.86480  0.11633  0.52526
 C         0.33954  0.47474  0.59107
 C         0.86859  0.43442  0.89499
 C         0.97360  0.10501  0.53943
 C         0.43417  0.46057  0.56558
 C         0.96296  0.44662  0.92272
 C         0.04024  0.07728  0.52390
 C         0.51634  0.47610  0.55338
 C         0.94046  0.43256  0.93909
 C         0.00137  0.06091  0.49347
 C         0.50790  0.50653  0.56744
 C         0.82932  0.40625  0.92718
 C         0.90214  0.07282  0.47907
 C         0.42307  0.52093  0.59375
 C         0.73379  0.39406  0.89947
 C         0.83432  0.10053  0.49459
 C         0.33973  0.50541  0.60594
 C         0.02281  0.44619  0.96944
 C         0.05337  0.03056  0.47675
 C         0.57662  0.52325  0.55381
 C         0.21172  0.44344  0.97627
 C         0.23545  0.02373  0.46717
 C         0.76828  0.53283  0.55656
 C         0.28759  0.45998  0.00515
 C         0.28244  0.99485  0.45483
 C         0.82761  0.54517  0.54002
 C         0.82374  0.57358  0.19299
 C         0.63075  0.80701  0.38059
 C         0.25016  0.61941  0.42642
 C         0.58084  0.54311  0.14162
 C         0.43922  0.85838  0.40149
 C         0.03773  0.59851  0.45689
 C         0.16902  0.58149  0.43784
 C         0.73118  0.56216  0.14365
 C         0.58753  0.85635  0.41851
 C         0.27071  0.59111  0.42186
 C         0.84885  0.57814  0.16925
 C         0.67960  0.83075  0.40889
 C         0.00954  0.62623  0.46036
 C         0.54918  0.53964  0.16587
 C         0.38331  0.83413  0.37377
 C         0.11726  0.63641  0.44523
 C         0.67203  0.55477  0.19118
 C         0.48085  0.80882  0.36359
 C         0.52664  0.33332  0.78171
 C         0.74493  0.21829  0.55161
 C         0.19332  0.44839  0.66668
 C         0.43982  0.44483  0.88482
 C         0.55500  0.11518  0.56001
 C         0.99499  0.43999  0.55517
 C         0.61176  0.36605  0.88767
 C         0.72409  0.11233  0.47838
 C         0.24571  0.52162  0.63395
 C         0.07975  0.47514  0.93515
 C         0.14460  0.06485  0.53999
 C         0.60461  0.46001  0.52486
 C         0.33578  0.42283  0.95371
 C         0.38207  0.04629  0.46912
 C         0.91295  0.53088  0.57717
 C         0.38362  0.39793  0.95929
 C         0.42433  0.04071  0.43864
 C         0.98569  0.56136  0.60207
 C         0.21413  0.37645  0.95395
 C         0.26018  0.04605  0.42250
 C         0.83768  0.57750  0.62355
 C         0.16115  0.35547  0.92138
 C         0.23977  0.07862  0.43409
 C         0.80568  0.56591  0.64453
 C         0.98993  0.33431  0.91608
 C         0.07385  0.08392  0.41823
 C         0.65562  0.58177  0.66569
 C         0.03816  0.31026  0.92255
 C         0.11561  0.07745  0.38771
 C         0.72790  0.61229  0.68974
 O         0.81370  0.67452  0.28066
 O         0.53304  0.71934  0.39386
 O         0.13918  0.60614  0.32548
 O         0.93157  0.63069  0.29911
 O         0.63246  0.70089  0.33158
 O         0.30088  0.66842  0.36931
 O         0.31027  0.65482  0.31878
 O         0.99149  0.68122  0.33604
 O         0.65545  0.66396  0.34518
 O         0.53029  0.63830  0.28712
 O         0.24317  0.71288  0.35118
 O         0.89199  0.64882  0.36170
 O         0.67078  0.34528  0.71185
 O         0.95893  0.28815  0.63343
 O         0.32550  0.36657  0.65472
 O         0.89476  0.34033  0.68218
 O         0.21258  0.31782  0.65815
 O         0.55443  0.34185  0.65967
 O         0.27318  0.36000  0.70649
 O         0.56669  0.29351  0.65351
 O         0.91318  0.34649  0.64000
 O         0.37284  0.30176  0.70059
 O         0.67225  0.29941  0.60117
 O         0.07108  0.39883  0.69824
 Mg        0.75864  0.66415  0.31143
 Mg        0.44721  0.68857  0.35272
 Mg        0.09449  0.64728  0.33585
 Mg        0.44190  0.32689  0.68335
 Mg        0.75855  0.31665  0.64354
 Mg        0.11501  0.35646  0.67311
